Version 4
SHEET 1 3184 2212
WIRE 1312 -1200 1280 -1200
WIRE 1424 -1200 1376 -1200
WIRE 1952 -1200 1824 -1200
WIRE 2048 -1200 1952 -1200
WIRE 1824 -1168 1824 -1200
WIRE 2160 -1168 2160 -1200
WIRE 272 -1136 240 -1136
WIRE 384 -1136 352 -1136
WIRE 1248 -1120 1248 -1136
WIRE 1280 -1120 1280 -1200
WIRE 1312 -1120 1280 -1120
WIRE 1424 -1120 1424 -1200
WIRE 1424 -1120 1392 -1120
WIRE 2048 -1072 2048 -1200
WIRE 2016 -1056 1728 -1056
WIRE -352 -1040 -352 -1072
WIRE 0 -1040 0 -1072
WIRE 704 -1040 704 -1072
WIRE 2160 -1040 2160 -1088
WIRE 2160 -1040 2080 -1040
WIRE 2192 -1040 2160 -1040
WIRE 304 -1024 304 -1040
WIRE 1360 -1024 1360 -1040
WIRE 1824 -1024 1824 -1088
WIRE 1936 -1024 1824 -1024
WIRE 2016 -1024 1936 -1024
WIRE 240 -1008 240 -1136
WIRE 240 -1008 176 -1008
WIRE 272 -1008 240 -1008
WIRE 1072 -1008 1040 -1008
WIRE 1168 -1008 1152 -1008
WIRE 1280 -1008 1280 -1120
WIRE 1280 -1008 1232 -1008
WIRE 1328 -1008 1280 -1008
WIRE 384 -992 384 -1136
WIRE 384 -992 336 -992
WIRE 416 -992 384 -992
WIRE 1424 -992 1424 -1120
WIRE 1424 -992 1392 -992
WIRE 1504 -992 1424 -992
WIRE 272 -976 240 -976
WIRE 1248 -976 1248 -1040
WIRE 1328 -976 1248 -976
WIRE 2048 -976 2048 -1008
WIRE 1248 -960 1248 -976
WIRE 1824 -960 1824 -1024
WIRE 240 -944 240 -976
WIRE 304 -944 304 -960
WIRE 304 -944 240 -944
WIRE -352 -928 -352 -960
WIRE 0 -928 0 -960
WIRE 304 -928 304 -944
WIRE 704 -928 704 -960
WIRE 1936 -896 1936 -1024
WIRE 2016 -896 1936 -896
WIRE 2160 -896 2160 -1040
WIRE 2160 -896 2096 -896
WIRE 1248 -864 1248 -880
WIRE 1360 -864 1360 -960
WIRE 1824 -864 1824 -880
WIRE -320 -592 -320 -624
WIRE -320 -496 -320 -512
WIRE -96 -496 -320 -496
WIRE -320 -480 -320 -496
WIRE -96 -448 -208 -448
WIRE 2336 -432 2336 -480
WIRE -320 -400 -320 -416
WIRE -208 -400 -208 -448
WIRE -208 -400 -320 -400
WIRE 672 -400 656 -400
WIRE -320 -384 -320 -400
WIRE 1728 -304 1728 -336
WIRE 2336 -304 2336 -352
WIRE 1728 -208 1728 -224
WIRE 1952 -208 1728 -208
WIRE 1728 -192 1728 -208
WIRE 2336 -192 2336 -240
WIRE -320 -176 -320 -208
WIRE 1952 -160 1840 -160
WIRE 1200 -144 1184 -144
WIRE 1200 -112 896 -112
WIRE 1728 -112 1728 -128
WIRE 1840 -112 1840 -160
WIRE 1840 -112 1728 -112
WIRE 2288 -112 2176 -112
WIRE 1728 -96 1728 -112
WIRE -320 -80 -320 -96
WIRE -96 -80 -320 -80
WIRE -320 -64 -320 -80
WIRE -96 -32 -208 -32
WIRE 2336 -16 2336 -96
WIRE -320 16 -320 0
WIRE -208 16 -208 -32
WIRE -208 16 -320 16
WIRE -320 32 -320 16
FLAG -352 -928 0
FLAG -352 -1072 5V
IOPIN -352 -1072 Out
FLAG 1360 -1040 5V
FLAG 1248 -864 0
FLAG 1360 -864 0
FLAG 1248 -1136 5V
FLAG 2048 -976 0
FLAG 1824 -864 0
FLAG 1952 -1200 5V
FLAG 0 -928 0
FLAG 304 -928 0
FLAG 304 -1040 5V
FLAG 672 -368 0
FLAG 2192 -1040 VoutAD
IOPIN 2192 -1040 BiDir
FLAG 1728 -1056 Vfilter
FLAG 1504 -992 Vfilter
IOPIN 1504 -992 BiDir
FLAG 1040 -1008 Vsource+Vnoise
FLAG 704 -1072 Vsource+Vnoise
FLAG 704 -928 Vsource
FLAG 416 -992 Vsource
IOPIN 416 -992 BiDir
FLAG 176 -1008 Isource
FLAG 0 -1072 Isource
FLAG -96 -352 5V
FLAG -320 -624 5V
FLAG -320 -384 0
FLAG -96 -384 VoutAD
FLAG -96 -272 5V
FLAG 128 -336 SignalWindowClosed
IOPIN 128 -336 BiDir
FLAG 1184 -144 SignalWindowClosed
FLAG 560 -336 VoutAD
FLAG 1952 -64 5V
FLAG 1728 -336 5V
FLAG 1728 -96 0
FLAG 1952 -96 ValidationSignal
FLAG 1952 16 5V
FLAG 1312 -128 ValidationSignal
IOPIN 1312 -128 BiDir
FLAG 2160 -1200 5V
FLAG 656 -400 CounterReset
FLAG -96 64 5V
FLAG -320 -208 5V
FLAG -320 32 0
FLAG -96 32 VoutAD
FLAG -96 144 5V
FLAG 128 80 CounterReset
IOPIN 128 80 BiDir
FLAG 2336 -16 0
FLAG 2336 -480 5V
SYMBOL res 1168 -1024 R90
WINDOW 0 0 56 VBottom 2
WINDOW 3 32 56 VTop 1
SYMATTR InstName R1
SYMATTR Value 1k
SYMATTR SpiceLine tol=1 pwr=0.1
SYMBOL cap 1232 -1024 R90
WINDOW 0 0 32 VBottom 2
WINDOW 3 32 32 VTop 1
SYMATTR InstName C1
SYMATTR Value 680n
SYMATTR SpiceLine V=1K Irms=0 Rser=0 Lser=0
SYMBOL res 1408 -1136 R90
WINDOW 0 0 56 VBottom 2
WINDOW 3 32 56 VTop 1
SYMATTR InstName R2
SYMATTR Value 10K
SYMATTR SpiceLine tol=1 pwr=0.1
SYMBOL cap 1376 -1216 R90
WINDOW 0 0 32 VBottom 2
WINDOW 3 32 32 VTop 1
SYMATTR InstName C2
SYMATTR Value 6.8n
SYMATTR SpiceLine V=50 Irms=0 Rser=0 Lser=0
SYMBOL voltage -352 -1056 R0
WINDOW 123 0 0 Left 0
WINDOW 39 0 0 Left 0
SYMATTR InstName V1
SYMATTR Value 5
SYMBOL TL072 1360 -1056 R0
SYMATTR InstName U1
SYMBOL res 1232 -976 R0
WINDOW 3 36 76 Left 1
SYMATTR Value 3k
SYMATTR InstName R3
SYMBOL res 1232 -1136 R0
WINDOW 3 36 76 Left 1
SYMATTR Value 3k
SYMATTR InstName R4
SYMBOL bv 704 -1056 R0
WINDOW 3 -59 -36 VRight 1
SYMATTR Value V=0.2*white(1e6*time)
SYMATTR InstName B1
SYMBOL LM393 2048 -1104 R0
SYMATTR InstName U2
SYMBOL res 2112 -912 R90
WINDOW 0 0 56 VBottom 2
WINDOW 3 32 56 VTop 1
SYMATTR InstName R5
SYMATTR Value 39k
SYMBOL res 1808 -1184 R0
WINDOW 3 36 76 Left 1
SYMATTR Value 22k
SYMATTR InstName RA
SYMATTR SpiceLine tol=1 pwr=0.1
SYMBOL res 1808 -976 R0
WINDOW 3 36 76 Left 1
SYMATTR Value 18k
SYMATTR InstName RB
SYMATTR SpiceLine tol=1 pwr=0.1
SYMBOL res 2144 -1184 R0
WINDOW 3 36 76 Left 1
SYMATTR Value 3k
SYMATTR InstName R6
SYMBOL current 0 -1040 R0
WINDOW 3 -60 -3 VCenter 1
SYMATTR Value EXP(0 20u 0 4.5u 400u 7u 4m 5 30m)
SYMATTR InstName I1
SYMBOL TL072 304 -1056 R0
SYMATTR InstName U3
SYMBOL res 368 -1152 R90
WINDOW 0 0 56 VBottom 2
WINDOW 3 32 56 VTop 1
SYMATTR InstName R0
SYMATTR Value 1Meg
SYMBOL ZZZ\\LOGIC\\CD4xxx\\cd4017b.i 784 -464 R0
SYMATTR InstName U4
SYMBOL ZZZ\\LOGIC\\CD4xxx\\cd4538b 16 -560 R0
SYMATTR InstName U14
SYMBOL res -336 -608 R0
WINDOW 3 36 76 Left 1
SYMATTR Value 47k
SYMATTR InstName R7
SYMBOL cap -336 -480 R0
WINDOW 3 24 56 Left 1
SYMATTR Value 100n
SYMATTR InstName C3
SYMBOL ZZZ\\LOGIC\\CD4xxx\\cd4538b 2064 -272 R0
SYMATTR InstName U5
SYMBOL res 1712 -320 R0
WINDOW 3 36 76 Left 1
SYMATTR Value 33k
SYMATTR InstName R9
SYMBOL cap 1712 -192 R0
WINDOW 3 24 56 Left 1
SYMATTR Value 1µ
SYMATTR InstName C5
SYMBOL ZZZ\\LOGIC\\CD4xxx\\CD4081B.i 1248 -192 R0
SYMATTR InstName U8
SYMBOL ZZZ\\LOGIC\\CD4xxx\\cd4049b 608 -400 R0
SYMATTR InstName U9
SYMBOL ZZZ\\LOGIC\\CD4xxx\\cd4538b 16 -144 R0
SYMATTR InstName U7
SYMBOL res -336 -192 R0
WINDOW 3 36 76 Left 1
SYMATTR Value 51k
SYMATTR InstName R8
SYMBOL cap -336 -64 R0
WINDOW 3 24 56 Left 1
SYMATTR Value 100n
SYMATTR InstName C4
SYMBOL LED 2320 -304 R0
SYMATTR InstName D1
SYMATTR Value HLMP-6000
SYMBOL res 2320 -448 R0
SYMATTR InstName R10
SYMATTR Value 150
SYMBOL nmos 2288 -192 R0
SYMATTR InstName M1
SYMATTR Value IRFZ24
TEXT -1040 -936 Left 2 !;ac dec 101 10 1e6
TEXT -1040 -896 Left 2 !.tran 0 80ms 0
TEXT -192 -680 Left 2 ;Bascules Flancs Montants decodeur
TEXT 1752 -672 Left 2 ;Bascule Flanc Montant Actionneur
TEXT 1832 -1296 Left 2 ;Convertiseur A/D
TEXT 1064 -1296 Left 2 ;Filtre
TEXT 256 -1296 Left 2 ;Recepteur
TEXT 672 -1296 Left 2 ;Bruit
TEXT -40 -1296 Left 2 ;Signal
TEXT -424 -1296 Left 2 ;Alimentation
TEXT 728 -680 Left 2 ;Compteur
TEXT -416 -496 Left 2 ;4.7ms
TEXT -416 -80 Left 2 ;5.1ms
TEXT 1632 -208 Left 2 ;33ms
